{
    "spec_version": "v1.4",
    "identifier": "RationalHydroDynamics",
    "$kref": "#/ckan/spacedock/2635",
    "license": "MIT",
    "x_via": "Automated SpaceDock CKAN submission"
}