{
    "spec_version": "v1.4",
    "identifier":   "RationalHydroDynamics",
    "$kref":        "#/ckan/spacedock/2635",
    "$vref":        "#/ckan/ksp-avc",
    "license":      "MIT",
    "tags": [
        "config"
    ],
    "depends": [
        { "name": "ModuleManager" }
    ]
}
